; Filename: ../WDS0005-BBM-EPS/BBM-EPS.inp
; WNTR: 0.5.0
; Created: 2024-05-28 09:52:50
[TITLE]

[JUNCTIONS]
;ID                      Elevation       Demand Pattern                 
 32344                          86.05          35.364 CommercialIndust           ;
 10289                         100.77          27.184 CommercialIndust           ;
 43816                         114.84          22.623 CommercialIndust           ;
 54798                          87.83          20.667 CommercialIndust           ;
 32706                          85.27          18.039 CommercialIndust           ;
 54458                          88.65          17.713 CommercialIndust           ;
 54429                          78.74           7.144 CommercialIndust           ;
 54585                          92.27           6.225 CommercialIndust           ;
 33056                          76.35           3.738 Residential                ;
 21654                          80.24           3.627 Residential                ;
 21773                           85.1           3.589 Residential                ;
 33103                          82.25           3.546 Residential                ;
 32941                          84.61            3.43 Residential                ;
 21932                          83.95            3.27 Residential                ;
 33190                          76.52           3.244 Residential                ;
 21817                          86.58           2.862 Residential                ;
 21831                          84.98           2.854 Residential                ;
 10645                          98.58            2.83 Residential                ;
 21752                          86.18           2.826 Residential                ;
 21892                          84.83           2.793 Residential                ;
 32103                          80.33           2.791 Residential                ;
 21950                          84.69           2.737 Residential                ;
 33029                           83.2           2.718 Residential                ;
 32895                          83.75           2.716 Residential                ;
 32955                          85.27           2.688 Residential                ;
 33276                          77.32           2.553 Residential                ;
 33094                          84.36           2.531 Residential                ;
 21871                          86.27           2.509 Residential                ;
 10623                          98.71           2.382 Residential                ;
 33290                          84.59             2.3 Residential                ;
 21500                           75.1           2.298 Residential                ;
 11305                          86.83           2.295 Residential                ;
 33063                          82.41            2.28 Residential                ;
 21807                          86.32           2.274 Residential                ;
 33265                          76.88           2.243 Residential                ;
 21777                          86.51           2.124 Residential                ;
 21939                          84.55           2.074 Residential                ;
 33205                          84.85           2.063 Residential                ;
 11279                          98.16           2.029 Residential                ;
 33127                          82.77           1.983 Residential                ;
 32897                          84.02           1.969 Residential                ;
 33031                          84.72           1.938 Residential                ;
 32876                          84.18           1.924 Residential                ;
 33492                          76.22            1.91 Residential                ;
 33234                          76.97           1.882 Residential                ;
 32650                          83.12           1.845 Residential                ;
 10683                         101.72           1.841 Residential                ;
 10632                          98.65           1.828 Residential                ;
 11310                          83.02           1.822 Residential                ;
 33148                          82.11           1.807 Residential                ;
 10760                          91.93           1.796 Residential                ;
 32790                          84.02           1.742 Residential                ;
 21697                          84.87           1.718 Residential                ;
 33134                          84.93           1.655 Residential                ;
 32888                          85.49           1.652 Residential                ;
 33153                          77.25           1.625 Residential                ;
 21897                          82.69           1.583 Residential                ;
 33212                          77.98           1.582 Residential                ;
 32910                          84.15           1.565 Residential                ;
 33206                          78.55           1.561 Residential                ;
 21861                          86.43           1.551 Residential                ;
 32904                          84.59           1.541 Residential                ;
 10611                          97.76           1.538 Residential                ;
 33439                          76.13           1.535 Residential                ;
 10759                         100.13           1.515 Residential                ;
 21747                          86.46           1.504 Residential                ;
 21805                          86.92             1.5 Residential                ;
 33292                           83.8           1.479 Residential                ;
 33033                          83.23           1.478 Residential                ;
 11277                         100.41           1.475 Residential                ;
 21823                          86.03           1.474 Residential                ;
 33064                          77.66            1.43 Residential                ;
 21969                           84.5           1.426 Residential                ;
 10597                          96.36           1.411 Residential                ;
 32875                          85.45             1.4 Residential                ;
 32645                           84.2           1.391 Residential                ;
 21884                          86.63            1.39 Residential                ;
 33482                          76.84           1.371 Residential                ;
 10634                         100.66            1.36 Residential                ;
 10688                          98.19            1.36 Residential                ;
 22002                          81.07           1.357 Residential                ;
 11318                          84.08           1.344 Residential                ;
 32431                          78.29           1.329 Residential                ;
 32145                          84.25           1.318 Residential                ;
 10751                          99.86           1.306 Residential                ;
 33441                          76.02           1.283 Residential                ;
 32821                          83.68           1.282 Residential                ;
 33061                          82.36           1.272 Residential                ;
 32533                          82.57           1.268 Residential                ;
 21810                          86.74           1.259 Residential                ;
 33253                          84.64           1.256 Residential                ;
 21951                          80.41            1.25 Residential                ;
 32920                          84.94           1.239 Residential                ;
 10642                          92.04           1.236 Residential                ;
 32681                          84.57           1.236 Residential                ;
 10667                         100.55           1.234 Residential                ;
 32718                          84.29           1.201 Residential                ;
 32784                          84.18           1.187 Residential                ;
 32547                          82.58           1.186 Residential                ;
 32590                          83.33           1.185 Residential                ;
 33250                          76.68           1.182 Residential                ;
 33089                          79.86           1.175 Residential                ;
 21740                          86.32           1.173 Residential                ;
 21875                          86.42           1.156 Residential                ;
 10622                          91.05           1.144 Residential                ;
 10742                         100.41           1.136 Residential                ;
 32490                          82.01           1.131 Residential                ;
 32624                          83.65           1.126 Residential                ;
 54249                          84.71           1.121 Residential                ;
 32898                          85.85           1.116 Residential                ;
 33270                          84.53           1.095 Residential                ;
 33272                          76.47           1.082 Residential                ;
 21484                          75.69           1.073 Residential                ;
 21942                          83.96           1.067 Residential                ;
 33099                          82.54            1.06 Residential                ;
 54862                          82.27           1.047 Residential                ;
 54877                          88.26            1.04 Residential                ;
 43539                         105.52           1.023 Residential                ;
 54874                          86.01           1.019 Residential                ;
 32720                          84.81           1.007 Residential                ;
 21467                           72.6           0.997 Residential                ;
 32793                          84.68            0.99 Residential                ;
 33030                          84.62           0.987 Residential                ;
 32522                          82.34           0.985 Residential                ;
 33203                          84.47           0.979 Residential                ;
 33351                          76.19           0.979 Residential                ;
 32648                          83.93           0.977 Residential                ;
 33093                          86.26           0.973 Residential                ;
 33115                          85.73           0.946 Residential                ;
 21325                          73.26           0.942 Residential                ;
 11209                          92.78           0.934 Residential                ;
 32958                          84.64           0.933 Residential                ;
 22003                           81.6            0.93 Residential                ;
 10717                          98.75           0.925 Residential                ;
 21822                          86.49           0.924 Residential                ;
 54885                          86.96           0.921 Residential                ;
 32988                          82.85           0.911 Residential                ;
 32641                           83.5           0.903 Residential                ;
 32607                          79.43           0.902 Residential                ;
 54870                          90.25             0.9 Residential                ;
 33251                          84.86           0.897 Residential                ;
 54897                          87.31           0.897 Residential                ;
 10777                          96.68            0.89 Residential                ;
 32552                           83.2            0.89 Residential                ;
 33231                          77.94           0.889 Residential                ;
 33389                          80.62           0.881 Residential                ;
 21404                          74.12           0.877 Residential                ;
 32973                          84.13           0.874 Residential                ;
 32798                          85.57            0.87 Residential                ;
 11289                          94.59           0.862 Residential                ;
 32914                          86.29           0.858 Residential                ;
 33491                          75.86           0.856 Residential                ;
 10682                          98.44           0.851 Residential                ;
 21435                          82.82           0.851 Residential                ;
 22000                          96.64            0.85 Residential                ;
 21448                          72.22           0.848 Residential                ;
 33201                          85.07           0.835 Residential                ;
 54863                           90.8           0.831 Residential                ;
 21329                           73.5            0.83 Residential                ;
 54700                          86.76           0.827 Residential                ;
 21431                          73.74           0.826 Residential                ;
 21465                          74.17           0.826 Residential                ;
 32625                          82.81           0.826 Residential                ;
 32319                           84.2           0.821 Residential                ;
 33057                          76.63           0.821 Residential                ;
 54859                          82.81           0.816 Residential                ;
 10904                          98.74           0.815 Residential                ;
 11306                          98.44           0.815 Residential                ;
 21413                          74.02           0.815 Residential                ;
 33150                          85.45           0.814 Residential                ;
 33195                          84.39           0.807 Residential                ;
 21761                          86.57           0.804 Residential                ;
 33252                          77.32           0.804 Residential                ;
 33200                          82.24             0.8 Residential                ;
 54693                          86.39           0.795 Residential                ;
 21819                          86.37           0.782 Residential                ;
 21490                          77.05           0.779 Residential                ;
 21585                          88.59           0.774 Residential                ;
 10844                         100.77           0.772 Residential                ;
 21360                          73.97           0.771 Residential                ;
 21586                          85.17           0.768 Residential                ;
 32575                          80.27           0.768 Residential                ;
 32491                          82.93           0.767 Residential                ;
 10703                         100.21           0.766 Residential                ;
 21731                          86.48           0.765 Residential                ;
 54883                          88.37           0.765 Residential                ;
 54898                          87.46           0.765 Residential                ;
 21449                          73.23           0.761 Residential                ;
 11269                          99.69           0.754 Residential                ;
 21641                          84.89           0.754 Residential                ;
 54185                          82.78           0.754 Residential                ;
 33209                          84.27           0.751 Residential                ;
 32587                          82.09           0.747 Residential                ;
 32532                           82.5           0.746 Residential                ;
 33490                          76.71           0.746 Residential                ;
 32623                          82.85           0.737 Residential                ;
 32921                          85.74           0.737 Residential                ;
 54886                           88.1           0.734 Residential                ;
 10772                            100           0.714 Residential                ;
 21359                          72.69           0.712 Residential                ;
 21882                          86.04           0.712 Residential                ;
 10762                          98.93           0.709 Residential                ;
 21326                          74.56           0.709 Residential                ;
 21660                          84.74           0.708 Residential                ;
 21583                          80.72           0.704 Residential                ;
 21650                           78.8           0.704 Residential                ;
 11239                         100.26           0.702 Residential                ;
 43929                          94.96           0.701 Residential                ;
 33050                           86.3             0.7 Residential                ;
 33493                          74.29             0.7 Residential                ;
 21714                          87.69           0.696 Residential                ;
 32549                           82.4           0.693 Residential                ;
 10735                          95.76            0.69 Residential                ;
 54890                          86.58            0.69 Residential                ;
 54234                          84.09           0.681 Residential                ;
 54288                          84.15           0.681 Residential                ;
 33266                          84.06           0.679 Residential                ;
 32639                          83.37           0.675 Residential                ;
 33046                           86.5           0.674 Residential                ;
 32712                          85.51           0.673 Residential                ;
 10817                         100.52           0.672 Residential                ;
 21658                          78.55           0.671 Residential                ;
 32909                          83.81           0.669 Residential                ;
 11254                          98.18           0.668 Residential                ;
 21330                          74.48           0.668 Residential                ;
 32550                          82.15           0.667 Residential                ;
 32905                          86.22           0.667 Residential                ;
 21352                          72.24           0.666 Residential                ;
 54582                          86.53           0.656 Residential                ;
 32618                          82.41           0.655 Residential                ;
 11321                          89.52           0.653 Residential                ;
 10746                         100.86           0.651 Residential                ;
 54537                          96.05           0.648 Residential                ;
 32599                          80.03           0.646 Residential                ;
 21659                          79.34           0.643 Residential                ;
 33245                           84.8            0.64 Residential                ;
 32456                          78.81           0.637 Residential                ;
 54661                          86.78           0.636 Residential                ;
 54904                          88.17           0.634 Residential                ;
 54256                          79.05           0.632 Residential                ;
 32570                          82.81            0.63 Residential                ;
 11272                          81.26           0.622 Residential                ;
 54556                          86.14           0.622 Residential                ;
 54901                          87.55           0.622 Residential                ;
 10239                          89.22            0.62 Residential                ;
 10732                          95.97            0.62 Residential                ;
 21750                          82.68           0.617 Residential                ;
 32524                          87.14           0.612 Residential                ;
 32830                          86.08           0.612 Residential                ;
 33202                           84.1            0.61 Residential                ;
 21485                          72.27           0.607 Residential                ;
 21890                          95.27           0.603 Residential                ;
 32561                          82.66           0.602 Residential                ;
 11319                          85.93           0.601 Residential                ;
 21766                          89.59           0.601 Residential                ;
 54663                          82.66           0.601 Residential                ;
 54754                          95.17           0.601 Residential                ;
 10367                          99.46           0.595 Residential                ;
 33072                          82.02           0.595 Residential                ;
 33483                          76.58           0.595 Residential                ;
 54496                          85.02           0.594 Residential                ;
 54534                           86.3           0.594 Residential                ;
 21886                          86.12           0.593 Residential                ;
 32433                          87.51           0.593 Residential                ;
 32800                          85.59           0.593 Residential                ;
 54611                          86.74           0.593 Residential                ;
 54642                          86.45           0.593 Residential                ;
 54803                           86.4           0.593 Residential                ;
 54833                          86.65           0.593 Residential                ;
 54876                          90.99           0.593 Residential                ;
 54879                          90.34           0.593 Residential                ;
 10375                         100.57           0.592 Residential                ;
 32994                          82.51           0.592 Residential                ;
 33434                          82.83           0.592 Residential                ;
 21843                          79.91           0.591 Residential                ;
 33207                          83.07           0.591 Residential                ;
 54460                          86.25           0.589 Residential                ;
 21832                          80.21           0.588 Residential                ;
 33109                          84.37           0.588 Residential                ;
 43780                           87.4           0.588 Residential                ;
 21829                          83.78           0.587 Residential                ;
 33179                          80.26           0.585 Residential                ;
 21813                          80.09           0.583 Residential                ;
 21885                          92.22           0.583 Residential                ;
 33395                           76.3           0.583 Residential                ;
 21555                          85.52           0.581 Residential                ;
 32883                           84.1           0.581 Residential                ;
 33254                          84.57           0.581 Residential                ;
 21701                           85.4           0.576 Residential                ;
 33191                          84.57           0.576 Residential                ;
 21833                          78.78           0.574 Residential                ;
 10810                         100.51           0.573 Residential                ;
 32842                          84.61           0.568 Residential                ;
 21784                          83.64           0.565 Residential                ;
 21846                           84.7           0.564 Residential                ;
 33438                          76.43           0.564 Residential                ;
 54598                          86.33           0.564 Residential                ;
 54606                          86.81           0.564 Residential                ;
 54657                          86.82           0.563 Residential                ;
 54884                          88.23           0.563 Residential                ;
 21877                          83.64           0.562 Residential                ;
 33149                          82.34           0.562 Residential                ;
 54718                          82.49           0.559 Residential                ;
 10910                          98.66           0.553 Residential                ;
 32700                          84.71           0.553 Residential                ;
 21738                          76.97           0.552 Residential                ;
 54278                          84.78           0.552 Residential                ;
 21910                          82.77           0.548 Residential                ;
 33349                          76.57           0.547 Residential                ;
 11112                           99.2           0.544 Residential                ;
 21726                          78.15           0.543 Residential                ;
 43894                          94.25           0.543 Residential                ;
 10699                         100.18           0.542 Residential                ;
 21858                          80.18           0.542 Residential                ;
 32945                          85.81           0.542 Residential                ;
 11194                         100.99           0.539 Residential                ;
 21415                          72.16           0.539 Residential                ;
 21497                          76.31           0.538 Residential                ;
 21718                          92.26           0.538 Residential                ;
 10652                           98.2           0.537 Residential                ;
 10799                          99.77           0.537 Residential                ;
 21462                          77.27           0.537 Residential                ;
 21639                          82.54           0.537 Residential                ;
 21709                          87.44           0.537 Residential                ;
 32525                          82.52           0.537 Residential                ;
 43854                          92.54           0.537 Residential                ;
 54592                          94.84           0.537 Residential                ;
 54670                          86.19           0.537 Residential                ;
 54671                          84.75           0.537 Residential                ;
 54792                           86.2           0.536 Residential                ;
 32309                          84.66           0.535 Residential                ;
 32520                          83.99           0.535 Residential                ;
 54173                          96.87           0.535 Residential                ;
 54634                          86.71           0.535 Residential                ;
 54668                          86.62           0.535 Residential                ;
 21786                          88.69           0.534 Residential                ;
 54891                          90.61           0.532 Residential                ;
 10637                         101.21           0.529 Residential                ;
 21384                          74.21           0.529 Residential                ;
 21734                          86.72           0.529 Residential                ;
 33008                          84.36           0.529 Residential                ;
 54267                          84.99           0.528 Residential                ;
 54646                          94.77           0.528 Residential                ;
 54725                          94.26           0.528 Residential                ;
 21881                          84.38           0.527 Residential                ;
 32975                          83.97           0.527 Residential                ;
 33088                          77.75           0.527 Residential                ;
 33023                          86.29           0.526 Residential                ;
 10663                          97.02           0.525 Residential                ;
 54220                          81.98           0.523 Residential                ;
 54236                          83.35           0.523 Residential                ;
 21394                          72.99           0.522 Residential                ;
 33422                          76.09           0.522 Residential                ;
 10593                          92.99            0.52 Residential                ;
 21799                          86.22           0.519 Residential                ;
 21893                          95.25           0.519 Residential                ;
 33269                          84.81           0.518 Residential                ;
 10926                          84.02           0.517 Residential                ;
 54117                          84.24           0.515 Residential                ;