; Filename: ../WDS0003-Net3/NET3.inp
; WNTR: 0.5.0
; Created: 2024-05-22 13:52:21
[TITLE]
EPANET Example Network 3, updated to include longer duration
Example showing how the percent of Lake water in a dual-source
system changes over time.

[JUNCTIONS]
;ID                      Elevation       Demand Pattern                 
 10                               147               0 1                          ;
 15                                32               1 3                          ;
 20                               129               0 1                          ;
 35                              12.5               1 4                          ;
 40                             131.9               0 1                          ;
 50                             116.5               0 1                          ;
 60                                 0               0 1                          ;
 601                                0               0 1                          ;
 61                                 0               0 1                          ;
 101                               42          189.95 1                          ;
 103                               43           133.2 1                          ;
 105                             28.5          135.37 1                          ;
 107                               22           54.64 1                          ;
 109                             20.3           231.4 1                          ;
 111                               10          141.94 1                          ;
 113                                2           20.01 1                          ;
 115                               14            52.1 1                          ;
 117                             13.6          117.71 1                          ;
 119                                2          176.13 1                          ;
 120                                0               0 1                          ;
 121                               -2           41.63 1                          ;
 123                               11               1 2                          ;
 125                               11            45.6 1                          ;
 127                               56           17.66 1                          ;
 129                               51               0 1                          ;
 131                                6           42.75 1                          ;
 139                               31            5.89 1                          ;
 141                                4            9.85 1                          ;
 143                             -4.5             6.2 1                          ;
 145                                1           27.63 1                          ;
 147                             18.5            8.55 1                          ;
 149                               16           27.07 1                          ;
 151                             33.5          144.48 1                          ;
 153                             66.2           44.17 1                          ;
 157                             13.1           51.79 1                          ;
 159                                6           41.32 1                          ;
 161                                4            15.8 1                          ;
 163                                5            9.42 1                          ;
 164                                5               0 1                          ;
 166                               -2             2.6 1                          ;
 167                               -5           14.56 1                          ;
 169                               -5               0 1                          ;
 171                               -4           39.34 1                          ;
 173                               -4               0 1                          ;
 177                                8           58.17 1                          ;
 179                                8               0 1                          ;
 181                                8               0 1                          ;
 183                               11               0 1                          ;
 184                               16               0 1                          ;
 185                               16           25.65 1                          ;
 187                             12.5               0 1                          ;
 189                                4          107.92 1                          ;
 191                               25            81.9 1                          ;
 193                               18           71.31 1                          ;
 195                             15.5               0 1                          ;
 197                               23           17.04 1                          ;
 199                               -2          119.32 1                          ;
 201                              0.1           44.61 1                          ;
 203                                2               1 5                          ;
 204                               21               0 1                          ;
 205                               21           65.36 1                          ;
 206                                1               0 1                          ;
 207                                9           69.39 1                          ;
 208                               16               0 1                          ;
 209                               -2            0.87 1                          ;
 211                                7            8.67 1                          ;
 213                                7           13.94 1                          ;
 215                                7           92.19 1                          ;
 217                                6           24.22 1                          ;
 219                                4           41.32 1                          ;
 225                                8            22.8 1                          ;
 229                             10.5           64.18 1                          ;
 231                                5           16.48 1                          ;
 237                               14           15.61 1                          ;
 239                               13           44.61 1                          ;
 241                               13               0 1                          ;
 243                               14            4.34 1                          ;
 247                               18           70.38 1                          ;
 249                               18               0 1                          ;
 251                               30           24.16 1                          ;
 253                               36           54.52 1                          ;
 255                               27           40.39 1                          ;
 257                               17               0 1                          ;
 259                               25               0 1                          ;
 261                                0               0 1                          ;
 263                                0               0 1                          ;
 265                                0               0 1                          ;
 267                               21               0 1                          ;
 269                                0               0 1                          ;
 271                                6               0 1                          ;
 273                                8               0 1                          ;
 275                               10               0 1                          ;
 60_330                             0               0 1                          ;
 61_329                             0               0 1                          ;
 101_101                           42               0 1                          ;
 105_105                         28.5               0 1                          ;
 111_225                           10               0 1                          ;
 111_111                           10               0 1                          ;
 113_114                            2               0 1                          ;
 115_112                           14               0 1                          ;
 115_115                           14               0 1                          ;
 117_119                         13.6               0 1                          ;
 119_123                            2               0 1                          ;
 119_171                            2               0 1                          ;
 120_297                            0               0 1                          ;
 120_122                            0               0 1                          ;
 121_123                           -2               0 1                          ;
 121_122                           -2               0 1                          ;
 125_131                           11               0 1                          ;
 127_135                           56               0 1                          ;
 129_145                           51               0 1                          ;
 141_149                            4               0 1                          ;
 151_163                         33.5               0 1                          ;
 161_179                            4               0 1                          ;
 163_179                            5               0 1                          ;
 169_185                           -5               0 1                          ;
 169_183                           -5               0 1                          ;
 171_189                           -4               0 1                          ;
 179_201                            8               0 1                          ;
 181_315                            8               0 1                          ;
 183_203                           11               0 1                          ;
 185_202                           16               0 1                          ;
 187_209                         12.5               0 1                          ;
 189_207                            4               0 1                          ;
 189_209                            4               0 1                          ;
 191_223                           25               0 1                          ;
 193_116                           18               0 1                          ;
 193_217                           18               0 1                          ;
 199_229                           -2               0 1                          ;
 201_323                          0.1               0 1                          ;
 205_319                           21               0 1                          ;
 207_237                            9               0 1                          ;
 211_269                            7               0 1                          ;
 213_261                            7               0 1                          ;
 217_257                            6               0 1                          ;
 229_261                         10.5               0 1                          ;
 237_273                           14               0 1                          ;
 239_275                           13               0 1                          ;
 241_275                           13               0 1                          ;
 247_285                           18               0 1                          ;
 249_295                           18               0 1                          ;
 255_287                           27               0 1                          ;
 255_289                           27               0 1                          ;
 257_303                           17               0 1                          ;
 261_307                            0               0 1                          ;
 263_117                            0               0 1                          ;
 265_321                            0               0 1                          ;
 267_311                           21               0 1                          ;
 269_325                            0               0 1                          ;
 271_191                            6               0 1                          ;
 273_319                            8               0 1                          ;
 275_239                           10               0 1                          ;

[RESERVOIRS]
;ID                                   Head                  Pattern
 River                            220                            ;
 Lake                             167                            ;

[TANKS]
;ID                              Elevation           Init Level            Min Level            Max Level             Diameter           Min Volume Volume Curve         Overflow            
 1                              131.9            13.1             0.1            32.1              85               0                                             ;
 2                              116.5            23.5             6.5            40.3              50               0                                             ;
 3                                129              29               4            35.5             164               0                                             ;

[PIPES]
;ID                   Node1                Node2                              Length             Diameter            Roughness           Minor Loss               Status
 20                   3                    20                                99              99             199               0                 Open   ;
 40                   1                    40                                99              99             199               0                 Open   ;
 50                   2                    50                                99              99             199               0                 Open   ;
 60                   River                60                              1231              24             140               0                 Open   ;
 103                  101                  103                             1350              16             130               0                 Open   ;
 107                  105                  107                             1470              12             130               0                 Open   ;
 109                  103                  109                             3940              16             130               0                 Open   ;
 113                  111                  113                             1680              12             130               0                 Open   ;
 120                  119                  120                              730              12             130               0                 Open   ;
 121                  120                  117                             1870              12             130               0                 Open   ;
 125                  123                  121                             1500              30             141               0                 Open   ;
 129                  121                  125                              930              24             130               0                 Open   ;
 133                  20                   127                              785              20             130               0                 Open   ;
 137                  129                  131                             6480              16             130               0                 Open   ;
 147                  139                  141                             2050               8             130               0                 Open   ;
 151                  15                   143                             1650               8             130               0                 Open   ;
 153                  145                  141                             3510              12             130               0                 Open   ;
 155                  147                  145                             2200              12             130               0                 Open   ;
 159                  147                  149                              880              12             130               0                 Open   ;
 161                  149                  151                             1020               8             130               0                 Open   ;
 169                  125                  153                             4560               8             130               0                 Open   ;
 173                  119                  157                             2080              30             141               0                 Open   ;
 175                  157                  159                             2910              30             141               0                 Open   ;
 177                  159                  161                             2000              30             141               0                 Open   ;
 180                  163                  164                              150              14             130               0                 Open   ;
 181                  164                  166                              490              14             130               0                 Open   ;
 186                  187                  204                             99.9               8             130               0                 Open   ;
 187                  169                  171                             1270              30             141               0                 Open   ;
 193                  35                   181                               30              24             130               0                 Open   ;
 195                  181                  177                               30              12             130               0                 Open   ;
 197                  177                  179                               30              12             130               0                 Open   ;
 199                  179                  183                              210              12             130               0                 Open   ;
 204                  184                  205                             4530              12             130               0                 Open   ;
 205                  204                  185                             1325              12             130               0                 Open   ;
 211                  169                  269                              646              12             130               0                 Open   ;
 213                  191                  187                             2560              12             130               0                 Open   ;
 215                  267                  189                             1230              12             130               0                 Open   ;
 219                  193                  195                              360              12             130               0                 Open   ;
 221                  161                  195                             2300               8             130               0                 Open   ;
 231                  199                  201                              630              24             141               0                 Open   ;
 233                  201                  203                              120              24             130               0                 Open   ;
 235                  199                  273                              725              12             130               0                 Open   ;
 238                  207                  206                              450              12             130               0                 Open   ;
 240                  206                  208                              510              12             130               0                 Open   ;
 241                  208                  209                              885              12             130               0                 Open   ;
 243                  209                  211                             1210              16             130               0                 Open   ;
 245                  211                  213                              990              16             130               0                 Open   ;
 247                  213                  215                             4285              16             130               0                 Open   ;
 249                  215                  217                             1660              16             130               0                 Open   ;
 251                  217                  219                             2050              14             130               0                 Open   ;
 263                  229                  231                             1960              12             130               0                 Open   ;
 271                  237                  229                              790               8             130               0                 Open   ;
 277                  241                  243                             2200              12             130               0                 Open   ;
 281                  241                  247                              445              10             130               0                 Open   ;
 283                  239                  249                              430              12             130               0                 Open   ;
 291                  255                  253                             1100              10             130               0                 Open   ;
 293                  255                  251                             1100               8             130               0                 Open   ;
 299                  257                  259                              350               8             130               0                 Open   ;
 301                  259                  263                             1400               8             130               0                 Open   ;
 305                  117                  261                              645              12             130               0                 Open   ;
 309                  265                  267                             1580               8             130               0                 Open   ;
 313                  269                  189                              646              12             130               0                 Open   ;
 317                  273                  275                             2230               8             130               0                 Open   ;
 330                  60_330               601                                1              30             140               0               Closed   ;
 333                  601                  61                                 1              30             140               0                 Open   ;
 330_60               60                   60_330                  0.3280839895              30             140               0               Closed   ;
 329_61               61                   61_329                  0.3280839895              30             140               0                 Open   ;
 329                  61_329               123                            45500              30             140               0                 Open   ;
 101_101              101_101              101                     0.3280839895              18             110               0                 Open   ;
 101                  10                   101_101                        14200              18             110               0                 Open   ;
 105_105              105_105              105                     0.3280839895              12             130               0                 Open   ;
 105                  101                  105_105                         2540              12             130               0                 Open   ;
 225_111              111                  111_225                 0.3280839895              12             130               0                 Open   ;
 225                  111_225              197                             2790              12             130               0                 Open   ;
 111_111              111_111              111                     0.3280839895              12             130               0                 Open   ;
 111                  109                  111_111                         2000              12             130               0                 Open   ;
 114_113              113_114              113                     0.3280839895               8             130               0                 Open   ;
 114                  115                  113_114                         2000               8             130               0                 Open   ;
 112_115              115                  115_112                 0.3280839895              12             130               0                 Open   ;
 112                  115_112              111                             1160              12             130               0                 Open   ;
 115_115              115_115              115                     0.3280839895               8             130               0                 Open   ;
 115                  107                  115_115                         1950               8             130               0                 Open   ;
 119_117              117_119              117                     0.3280839895              12             130               0                 Open   ;
 119                  115                  117_119                         2180              12             130               0                 Open   ;
 123_119              119_123              119                     0.3280839895              30             141               0                 Open   ;
 171_119              119                  119_171                 0.3280839895              12             130               0                 Open   ;
 171                  119_171              151                             3460              12             130               0                 Open   ;
 297_120              120                  120_297                 0.3280839895               8             130               0                 Open   ;
 297                  120_297              257                              645               8             130               0                 Open   ;
 122_120              120_122              120                     0.3280839895               8             130               0                 Open   ;
 123_121              121                  121_123                 0.3280839895              30             141               0                 Open   ;
 123                  121_123              119_123                         2000              30             141               0                 Open   ;
 122_121              121                  121_122                 0.3280839895               8             130               0                 Open   ;
 122                  121_122              120_122                         2050               8             130               0                 Open   ;
 131_125              125                  125_131                 0.3280839895              24             130               0                 Open   ;
 131                  125_131              127                             3240              24             130               0                 Open   ;
 135_127              127                  127_135                 0.3280839895              24             130               0                 Open   ;
 135                  127_135              129                              900              24             130               0                 Open   ;
 145_129              129                  129_145                 0.3280839895               8             130               0                 Open   ;
 145                  129_145              139                             2750               8             130               0                 Open   ;
 149_141              141_149              141                     0.3280839895               8             130               0                 Open   ;
 149                  143                  141_149                         1400               8             130               0                 Open   ;
 163_151              151                  151_163                 0.3280839895              12             130               0                 Open   ;
 163                  151_163              153                             1170              12             130               0                 Open   ;